Circuit: * C:\Users\nico\Baltic Racing\TY24_Local\Vicor_DCDC\Simulationen\Output_FLT\Output_FLT.asc

C7: Increased Cpar to 1e-009
C1: Increased Cpar to 1e-009
.step r=0.1
.step r=1
.step r=10

Date: Mon May 20 14:59:38 2024
Total elapsed time: 0.067 seconds.

tnom = 27
temp = 27
method = trap
totiter = 0
traniter = 0
tranpoints = 0
accept = 0
rejected = 0
matrix size = 3
fillins = 1
solver = Normal

