Circuit: * C:\Users\nico\Baltic Racing\TY24_Local\Vicor_DCDC\Simulationen\Startup\Startup.asc

WARNING: Specified period is not longer than the sum of Trise, Tfall, and Ton for v2.  Increasing period to 0.3
.OP point found by inspection.

Date: Tue Oct 01 17:16:51 2024
Total elapsed time: 0.091 seconds.

tnom = 27
temp = 27
method = modified trap
totiter = 2852
traniter = 2852
tranpoints = 1335
accept = 1284
rejected = 51
matrix size = 8
fillins = 0
solver = Normal
Matrix Compiler1: 344 bytes object code size  0.1/0.1/[0.1]
Matrix Compiler2: 580 bytes object code size  0.1/0.1/[0.0]

