Circuit: * C:\Users\nico\Baltic Racing\TY24_Local\Vicor_DCDC\Simulationen\Input_FLT\Input_FLT.asc

C2: Increased Cpar to 4.7e-013
C1: Increased Cpar to 4.7e-013
.step r=0.1
.step r=1
.step r=10

Date: Mon May 20 13:42:10 2024
Total elapsed time: 0.110 seconds.

tnom = 27
temp = 27
method = trap
totiter = 0
traniter = 0
tranpoints = 0
accept = 0
rejected = 0
matrix size = 3
fillins = 1
solver = Normal

